tests/golden/phase8/show_faultstudy.txt
FAULT STUDY REPORT

ALL-Node Fault Currents

Bus         Node            Amps   X/R Node            Amps   X/R Node            Amps   X/R ...

"SOURCEBUS"   1         100418   4.0    2         100419   4.0    3         100418   4.0
"650"         1        2101874   4.6    2        2101896   4.6    3        2101875   4.6
"RG60"        1        1442294   2.5    2        1468384   2.5    3        1442294   2.5
"633"         1           8177   1.8    2           7940   2.9    3           7100   1.9
"634"         1          19394   1.7    2          19473   2.0    3          18646   1.8
"671"         1           5691   1.9    2           5557   4.4    3           4809   2.3
"645"         2           5902   1.1    3           5959   3.6
"646"         2           4861   0.9    3           4997   2.8
"692"         3           4809   2.3    1           5691   1.9    2           5557   4.4
"675"         1           5012   1.6    2           5019   3.2    3           4305   2.1
"611"         3           2361   1.8
"652"         1           2290   1.4
"670"         1           8541   2.0    2           8348   4.4    3           7243   2.5
"632"         1          11388   2.1    2          11141   4.4    3           9676   2.5
"680"         1           4498   1.9    2           4431   4.5    3           3804   2.5
"684"         1           4035   5.2    3           3979   1.1


ONE-Node to ground Faults

                                      pu Node Voltages (L-N Volts if no base)
Bus            Node  Amps         Node 1     Node 2     Node 3    ...

"SOURCEBUS"       1       105434          0.000      0.955      0.998
"SOURCEBUS"       2       105437          0.998      0.000      0.955
"SOURCEBUS"       3       105434          0.955      0.998      0.000
"650"             1      2810816          0.000      0.894      0.868
"650"             2      2810904          0.868      0.000      0.894
"650"             3      2810899          0.894      0.868      0.000
"RG60"            1      1760478          0.000      0.907      0.999
"RG60"            2      1792356          0.999      0.000      0.923
"RG60"            3      1760520          0.923      0.981      0.000
"633"             1         4707          0.000      1.320      1.251
"633"             2         4643          1.276      0.000      1.215
"633"             3         4582          1.261      1.250      0.000
"634"             1        16264          0.000      1.113      1.063
"634"             2        16319          1.070      0.000      1.062
"634"             3        15970          1.079      1.082      0.000
"671"             1         3091          0.000      1.336      1.249
"671"             2         3073          1.292      0.000      1.182
"671"             3         2969          1.216      1.295      0.000
"645"             2         4341          0.000      1.230
"645"             3         4270          1.220      0.000
"646"             2         3666          0.000      1.232
"646"             3         3601          1.198      0.000
"692"             3         2969          0.000      1.216      1.295
"692"             1         3091          1.249      0.000      1.336
"692"             2         3073          1.182      1.292      0.000
"675"             1         2847          0.000      1.317      1.232
"675"             2         2864          1.272      0.000      1.166
"675"             3         2745          1.190      1.292      0.000
"611"             3         2361          0.000
"652"             1         2290          0.000
"670"             1         4677          0.000      1.337      1.271
"670"             2         4597          1.312      0.000      1.202
"670"             3         4537          1.239      1.287      0.000
"632"             1         6258          0.000      1.339      1.284
"632"             2         6129          1.323      0.000      1.215
"632"             3         6097          1.252      1.283      0.000
"680"             1         2442          0.000      1.336      1.247
"680"             2         2446          1.290      0.000      1.185
"680"             3         2350          1.218      1.294      0.000
"684"             1         2735          0.000      1.222
"684"             3         2633          1.215      0.000

Adjacent Node-Node Faults

                                        pu Node Voltages (L-N Volts if no base)
Bus          Node-Node      Amps        Node 1     Node 2     Node 3    ...

"SOURCEBUS"      1   2       86964         0.500      0.500      1.000
"SOURCEBUS"      1   3       86962         0.500      1.000      0.500
"SOURCEBUS"      2   3       86964         1.000      0.500      0.500
"650"            1   2     1801743         0.536      0.464      1.000
"650"            1   3     1801750         0.464      1.000      0.536
"650"            2   3     1801818         1.000      0.536      0.464
"RG60"           1   2     1246233         0.547      0.500      1.057
"RG60"           1   3     1235472         0.505      1.037      0.552
"RG60"           2   3     1246293         1.056      0.547      0.500
"633"            1   2        7116         0.495      0.495      0.985
"633"            1   3        6704         0.511      1.071      0.511
"633"            2   3        6176         0.994      0.512      0.512
"634"            1   2       16888         0.501      0.496      0.978
"634"            1   3       16561         0.491      1.020      0.496
"634"            2   3       16261         0.981      0.500      0.494
"671"            1   2        5035         0.482      0.482      0.972
"671"            1   3        4517         0.489      1.076      0.489
"671"            2   3        4235         0.954      0.515      0.515
"645"            2   3        5720         0.511      0.511
"646"            2   3        4743         0.509      0.509
"692"            3   1        4517         0.489      0.489      1.076
"692"            3   2        4235         0.515      0.954      0.515
"692"            1   2        5035         0.972      0.482      0.482
"675"            1   2        4476         0.482      0.482      0.964
"675"            1   3        4009         0.486      1.080      0.486
"675"            2   3        3849         0.949      0.515      0.514
"670"            1   2        7583         0.489      0.489      0.990
"670"            1   3        6792         0.502      1.074      0.503
"670"            2   3        6335         0.978      0.516      0.516
"632"            1   2       10130         0.493      0.493      1.002
"632"            1   3        9068         0.511      1.073      0.511
"632"            2   3        8437         0.991      0.516      0.516
"680"            1   2        4000         0.489      0.489      0.968
"680"            1   3        3573         0.488      1.079      0.488
"680"            2   3        3361         0.955      0.510      0.510
"684"            1   3        3899         0.485      0.485
